*Heading
** Job name: Job-1 Model name: Model-1
** Generated by: Abaqus/CAE 6.14-2
*Preprint, echo=NO, model=NO, history=NO, contact=NO
**
** PARTS
**
*Part, name=Part-1
*End Part
**  
**
** ASSEMBLY
**
*Assembly, name=Assembly
**  
*Instance, name=Part-1-1, part=Part-1
*Node
      1,           0.,           0.
      2,          20.,           0.
      3,          40.,           0.
      4,          60.,           0.
      5,          80.,           0.
      6,         100.,           0.
      7,         120.,           0.
      8,         140.,           0.
      9,         160.,           0.
     10,         180.,           0.
     11,         200.,           0.
     12,         220.,           0.
     13,         240.,           0.
     14,         260.,           0.
     15,         280.,           0.
     16,         300.,           0.
     17,         320.,           0.
     18,         340.,           0.
     19,         360.,           0.
     20,         380.,           0.
** ... 211 like lines cut
*Element, type=CPS3
  1,   1,   2,  23
  2,  23,  22,   1
  3,   2,   3,  24
  4,  24,  23,   2
  5,   3,   4,  25
  6,  25,  24,   3
  7,   4,   5,  26
  8,  26,  25,   4
  9,   5,   6,  27
 10,  27,  26,   5
 11,   6,   7,  28
 12,  28,  27,   6
 13,   7,   8,  29
 14,  29,  28,   7
 15,   8,   9,  30
 16,  30,  29,   8
 17,   9,  10,  31
 18,  31,  30,   9
 19,  10,  11,  32
 20,  32,  31,  10
** ... 380 like lines cut
*Nset, nset=_PickedSet2, internal, generate
   1,  231,    1
*Elset, elset=_PickedSet2, internal, generate
   1,  400,    1
** Section: Section-1
*Solid Section, elset=_PickedSet2, material=steel
1.1,
*End Instance
**  
*Nset, nset=_PickedSet7, internal, instance=Part-1-1, generate
   1,  211,   21
*Elset, elset=_PickedSet7, internal, instance=Part-1-1, generate
   2,  362,   40
*End Assembly
** 
** MATERIALS
** 
*Material, name=steel
*Density
 7.8e-09,
*Elastic
210000., 0.3
** ----------------------------------------------------------------
** 
** STEP: Step-1
** 
*Step, name=Step-1, nlgeom=NO, perturbation
*Frequency, eigensolver=Lanczos, acoustic coupling=on, normalization=displacement
10, , , , , 
** 
** BOUNDARY CONDITIONS
** 
** Name: BC-1 Type: Symmetry/Antisymmetry/Encastre
*Boundary
_PickedSet7, ENCASTRE
** 
** OUTPUT REQUESTS
** 
*Restart, write, frequency=0
** 
** FIELD OUTPUT: F-Output-1
** 
*Output, field, variable=PRESELECT
*End Step
